Version 4
SHEET 1 1564 868
WIRE 304 -32 -192 -32
WIRE 96 64 96 48
WIRE 304 80 304 -32
WIRE 304 112 304 80
WIRE 304 112 224 112
WIRE -192 144 -192 -32
WIRE 224 144 224 112
WIRE 224 160 224 144
WIRE 336 160 336 128
WIRE 384 160 336 160
WIRE 432 160 384 160
WIRE 384 176 384 160
WIRE 384 176 256 176
WIRE 128 224 96 224
WIRE 144 224 128 224
WIRE 160 224 144 224
WIRE 432 256 432 240
WIRE 224 304 224 272
WIRE 224 304 208 304
WIRE 96 400 96 304
WIRE 112 400 112 384
WIRE 112 400 96 400
WIRE 208 400 208 304
WIRE 208 400 112 400
WIRE 112 416 112 400
FLAG 432 256 0
FLAG 304 80 drain
FLAG 112 416 0
FLAG -192 224 0
FLAG 336 128 tj
FLAG 128 224 gate
SYMBOL voltage 432 144 R0
WINDOW 123 0 0 Left 0
WINDOW 39 0 0 Left 0
SYMATTR InstName V1
SYMATTR Value {Tj}
SYMBOL voltage -192 128 R0
WINDOW 123 0 0 Left 0
WINDOW 39 0 0 Left 0
SYMATTR InstName VDC
SYMATTR Value {Vds}
SYMBOL voltage 96 208 R0
WINDOW 123 0 0 Left 0
WINDOW 39 0 0 Left 0
SYMATTR InstName VAC
SYMATTR Value SINE(0 {Vac} {f})
SYMBOL SiCMOSFET\\Wolfspeed\\nmos_die 176 208 R0
SYMATTR Value CPM3-1200-0075A
SYMATTR InstName U1
TEXT -136 456 Left 2 !.param Tj = 25
TEXT -136 528 Left 2 !.tran 0 {tsim} 0 1n
TEXT -136 408 Left 2 !.param Vds = 1e3
TEXT -136 432 Left 2 !.param Vac = 25m
TEXT -168 -136 Left 2 !.lib C:\\Users\\gd48aa\\OneDrive - Aalborg Universitet\\Documents\\LTspiceXVII\\lib\\SiCMOSFET\\Wolfspeed\\CPM3-1200-0075A.lib
TEXT -136 480 Left 2 !.param f = 1Meg
TEXT -136 504 Left 2 !.param tsim = {5/f}
