Version 4
SHEET 1 1372 868
WIRE 304 -32 -192 -32
WIRE 304 80 304 -32
WIRE 304 128 304 80
WIRE -192 144 -192 -32
WIRE 304 160 304 128
WIRE 368 160 336 160
WIRE 336 176 368 160
WIRE 256 208 224 208
WIRE 368 240 336 240
WIRE 304 256 304 224
WIRE 304 288 304 256
WIRE 224 384 224 208
WIRE 224 384 0 384
WIRE 304 384 304 368
WIRE 304 384 224 384
WIRE 304 400 304 384
FLAG 336 240 0
FLAG 304 80 ds
FLAG 304 400 0
FLAG -192 224 0
SYMBOL SiCMOSFET\\Wolfspeed\\nmos_die 256 192 R0
WINDOW 3 9 -26 Right 1
SYMATTR Value CPM2-1200-0160B
SYMATTR InstName U1
SYMBOL voltage 368 144 R0
WINDOW 123 0 0 Left 0
WINDOW 39 0 0 Left 0
SYMATTR InstName V1
SYMATTR Value {Tj}
SYMBOL voltage -192 128 R0
WINDOW 123 0 0 Left 0
WINDOW 39 0 0 Left 0
SYMATTR InstName VDC
SYMATTR Value {Vds}
SYMBOL voltage 304 272 R0
WINDOW 123 0 0 Left 0
WINDOW 39 0 0 Left 0
SYMATTR InstName VAC
SYMATTR Value SINE(0 {Vac} {f})
TEXT -136 456 Left 2 !.param Tj = 25
TEXT -136 528 Left 2 !.tran 0 {tsim} 0 1n
TEXT -136 408 Left 2 !.param Vds = 1000
TEXT -136 432 Left 2 !.param Vac = 25m
TEXT -168 -136 Left 2 !.lib C:\\Users\\gd48aa\\OneDrive - Aalborg Universitet\\Documents\\LTspiceXVII\\lib\\SiCMOSFET\\Wolfspeed\\CPM3-1200-0013A.lib
TEXT -136 480 Left 2 !.param f = 1Meg
TEXT -136 504 Left 2 !.param tsim = {1/f}
