Version 4
SHEET 1 2412 1492
WIRE 704 864 560 864
WIRE 880 864 784 864
WIRE 1152 976 1024 976
WIRE 1024 1024 1024 976
WIRE 560 1040 560 864
WIRE 368 1072 256 1072
WIRE 560 1072 560 1040
WIRE 624 1072 592 1072
WIRE 592 1088 624 1072
WIRE 368 1120 368 1072
WIRE 480 1120 368 1120
WIRE 624 1152 592 1152
WIRE 560 1168 560 1136
WIRE 560 1184 560 1168
WIRE 560 1184 160 1184
WIRE 880 1184 880 864
WIRE 880 1184 560 1184
FLAG 160 1184 0
FLAG 592 1152 0
FLAG 256 1152 0
FLAG 560 864 ds
FLAG 1024 1104 0
FLAG 1152 976 Rdson
SYMBOL ind 800 848 R90
WINDOW 0 5 56 VBottom 2
WINDOW 3 32 56 VTop 2
SYMATTR InstName L1
SYMATTR Value 120
SYMBOL SiCMOSFET\\Wolfspeed\\nmos_die 512 1104 R0
WINDOW 3 9 -26 Right 1
SYMATTR Value CPM3-1200-0013A
SYMATTR InstName U2
SYMBOL voltage 624 1056 R0
WINDOW 123 0 0 Left 0
WINDOW 39 0 0 Left 0
SYMATTR InstName V2
SYMATTR Value {Tj}
SYMBOL voltage 256 1056 R0
WINDOW 123 0 0 Left 0
WINDOW 39 0 0 Left 0
SYMATTR InstName V1
SYMATTR Value 15
SYMBOL bv 1024 1008 R0
SYMATTR InstName B1
SYMATTR Value V=V(ds)/{id}
TEXT 688 792 Left 2 !.ic I(L1) = {id}
TEXT -464 696 Left 2 !.lib C:\\Users\\gd48aa\\OneDrive - Aalborg Universitet\\Documents\\LTspiceXVII\\lib\\SiCMOSFET\\Wolfspeed\\CPM3-1200-0013A.lib
TEXT 120 1240 Left 2 !.step param Tj -50 175 25
TEXT 696 760 Left 2 !.param id = 100
TEXT 616 1000 Left 2 ;.param Tj =25
TEXT 112 1296 Left 2 !.tran 0 10n 0 0.1n
TEXT 96 1400 Left 2 !.meas Rdson FIND V(Rdson) AT 10ns
